         291
  Built with Packmol                                             
  C            7.378341        8.235324        6.361027
  C            8.648717        8.578412        6.823574
  O            6.990804        6.929188        6.314895
  H            7.710630        6.354454        6.631575
  C            6.498619        9.232562        5.942876
  C            6.887469       10.570362        5.987201
  C            8.157308       10.916581        6.450127
  C            9.036593        9.916826        6.867420
  H            5.507704        8.968245        5.581026
  H            6.196512       11.343266        5.659048
  C            8.568229       12.331763        6.495793
  H           10.028232       10.179512        7.228388
  H            9.340985        7.806650        7.151082
  C            8.403466       13.116211        7.571283
  H            9.024318       12.711010        5.581483
  C            8.819970       14.568064        7.602599
  H            7.945246       12.723996        8.476459
  O           10.243909       14.668732        7.621799
  H            8.411068       15.052896        8.493378
  H            8.434142       15.084489        6.719132
  H           10.573620       14.249738        8.437487
  H           19.161361       10.045511       11.547435
  H           18.095069        9.246472       10.603299
  O           18.198881        9.969022       11.286865
  H           11.356260        2.387190        7.382634
  H           12.478496        3.573032        7.348005
  O           12.289565        2.635960        7.641807
  H           15.040676       18.424987       12.854558
  H           14.227911       17.130866       13.430318
  O           14.801531       17.911489       13.678722
  H           14.586792        8.814633        7.112660
  H           13.217135        7.926281        7.153958
  O           13.599108        8.843604        7.266794
  H           13.767934       11.410018        3.205001
  H           12.279058       10.739467        3.226046
  O           12.800955       11.562112        3.000223
  H           17.428038        3.875907       10.554215
  H           18.116778        3.533709        9.113600
  O           17.562051        3.167752        9.860909
  H           16.944983       14.724551        0.067180
  H           18.528124       14.974395        0.380353
  O           17.619463       15.392065        0.382800
  H            0.978767       12.661222       16.673351
  H            2.462065       12.104742       17.069577
  O            1.526743       11.840288       16.834300
  H           19.953138        5.570173        4.457570
  H           18.695040        6.360435        3.779697
  O           19.681796        6.382235        3.940806
  H           12.929803       11.790409        7.564679
  H           11.955091       13.055215        7.222571
  O           12.626611       12.693400        7.869307
  H           17.246017       15.452304        6.277553
  H           16.384369       14.572962        5.204634
  O           16.968397       15.376559        5.319792
  H           15.566913        4.724064       16.663630
  H           14.850356        6.174428       16.440411
  O           15.614174        5.590178       16.165907
  H           16.568491       17.141399       15.401654
  H           17.864931       18.133709       15.364255
  O           16.885086       18.077347       15.556202
  H            8.744920        3.521892       11.951563
  H           10.143024        4.362255       12.028575
  O            9.262933        4.198870       12.474515
  H            8.379386        4.671075       15.719073
  H            9.254284        5.830562       14.972763
  O            8.356575        5.599479       15.348047
  H            2.818149       13.287019        3.620236
  H            1.760141       12.043831        3.576193
  O            1.849826       13.039836        3.583264
  H            9.090631        0.153847       17.390728
  H            9.953946        1.530019       17.557082
  O           10.011124        0.534652       17.479021
  H            0.874320        3.741048        3.537908
  H            1.311662        3.109485        2.096833
  O            1.396444        3.015872        3.088885
  H           10.495047       12.000196        2.388981
  H            9.970682       10.482016        2.683950
  O            9.686686       11.417481        2.473309
  H            9.473972       13.821869       18.080341
  H            8.730715       14.466255       19.383863
  O            8.627551       13.837910       18.612723
  H            5.364784        1.969186        5.661148
  H            4.215876        1.011970        6.317338
  O            4.492259        1.509581        5.495076
  H           16.672340        3.695006        5.141372
  H           16.068467        2.314188        4.512471
  O           16.414279        3.227237        4.295965
  H            7.456497        2.415955       19.676418
  H            7.485893        3.961196       19.148969
  O            7.062791        3.327371       19.796556
  H           10.455823        7.869257        1.968305
  H            9.795333        6.439118        1.537849
  O           10.119233        7.323283        1.201013
  H           10.145716        7.588066        9.275243
  H           11.454593        8.239844       10.002474
  O           10.664284        7.640192       10.128757
  H            3.744126        3.505608        7.889343
  H            3.913068        5.018344        7.297798
  O            3.584463        4.475967        8.071079
  H            9.084734       16.898866        1.333766
  H            7.992272       18.035297        0.907284
  O            8.395600       17.155365        0.655961
  H            7.873813        5.620033       11.307220
  H            8.346710        7.182845       11.278556
  O            7.560729        6.566540       11.228358
  H           17.304887        7.861483       13.705863
  H           16.245426        7.368300       14.846542
  O           16.672430        8.164959       14.418616
  H           13.804093       14.147676        3.222938
  H           13.297141       14.405432        1.692122
  O           13.020343       14.100776        2.603541
  H           18.867409        7.731628       16.147179
  H           17.453346        8.140488       16.854352
  O           18.175513        7.449979       16.812063
  H            0.395192       19.820516       17.017592
  H            1.796740       19.597511       16.209651
  O            1.084860       19.147861       16.749244
  H            7.820435        9.192228       10.424860
  H            6.221434        8.969350       10.670538
  O            6.905970        9.368467       10.060429
  H           11.635601       11.229229       16.673445
  H           11.712731       10.114692       17.864535
  O           12.145647       10.444341       17.025468
  H            9.577144       16.517500       14.064177
  H           10.364649       15.087760       14.114335
  O           10.472755       16.076180       14.007305
  H            9.210036        4.464608       17.810842
  H           10.449444        3.598916       18.428323
  O           10.076983        4.518982       18.306385
  H            2.277081       11.688907       10.171226
  H            1.119441       10.537083       10.169084
  O            1.632003       11.178528       10.740000
  H           10.738803       18.967240       16.121844
  H            9.831678       19.832508       15.075292
  O           10.596376       19.193377       15.158157
  H           15.220311       10.757256       12.810562
  H           15.553708        9.163868       12.680959
  O           15.947842       10.082982       12.683400
  H            0.958555        9.813798        6.673733
  H            0.041453       10.822018        7.573317
  O            0.705066       10.768970        6.827045
  H           10.935780        9.940690       12.224456
  H            9.818807        8.752080       12.144366
  O            9.957023        9.742151       12.172185
  H            4.285411        3.634284       12.214539
  H            2.660126        3.492792       12.141978
  O            3.528864        3.035468       11.951536
  H            6.913917        0.114658        4.918799
  H            7.812473        1.383781        5.417560
  O            7.496732        0.870257        4.619612
  H            7.601362        4.332132        7.542239
  H            6.624459        4.013496        8.811477
  O            7.519350        4.366596        8.538332
  H            1.848793       10.768409       13.687253
  H            0.803875        9.516350       13.772886
  O            1.109530       10.356850       14.220383
  H            4.105813       13.245355       10.663148
  H            5.671056       13.574964       10.992098
  O            4.984611       13.512407       10.267531
  H            0.635617       12.334310        1.627051
  H            0.451525       12.286088        0.005132
  O            1.078401       12.517309        0.749230
  H            1.207458       13.973136       18.424523
  H            2.163605       13.433339       19.633340
  O            1.886149       14.238675       19.109347
  H            2.205070        6.758093        9.086431
  H            0.910528        6.350296        8.178302
  O            1.637269        5.998718        8.768522
  H           14.657436       12.382991        1.026528
  H           16.024913       11.492657        1.090936
  O           15.031833       11.473451        1.207304
  H            7.378471       16.718255       16.243271
  H            5.877141       17.009671       15.670626
  O            6.653830       17.402766       16.162916
  H           15.822982       14.906035       10.463788
  H           14.723939       13.746818       10.124444
  O           14.963624       14.708643        9.991923
  H           11.449655       16.453058        3.803492
  H           11.206079       14.844286        3.942635
  O           11.894522       15.557419        3.809946
  H            0.549048       15.610812        7.711462
  H            1.457109       15.509863        9.065002
  O            0.601262       15.855201        8.679792
  H            8.698160       14.861893        2.224906
  H            8.195915       13.308154        2.202987
  O            7.913731       14.255422        2.355214
  H           14.079423        7.702079       10.823453
  H           14.455306        8.963378        9.856668
  O           14.638851        8.526544       10.737353
  H           18.011005        6.238313        1.685854
  H           18.152780        6.336758        0.061956
  O           18.185006        5.719970        0.848501
  H            7.839446       12.427692       -0.013910
  H            8.436167       11.080946        0.691096
  O            7.704464       11.762037        0.720120
  H           12.278130        3.088575       10.222153
  H           12.925303        4.330830        9.382625
  O           13.033714        3.367804        9.629499
  H            6.768090       10.031927       19.630401
  H            5.529590        8.983853       19.444674
  O            5.776726        9.949306       19.527988
  H            5.107201        4.228761       17.962619
  H            4.505378        2.716991       18.101159
  O            4.269545        3.684216       18.006423
  H            5.431439       14.557477        4.174849
  H            5.914383       12.999686        4.257833
  O            5.122505       13.610438        4.263132
  H            5.298779        2.953348        2.102340
  H            3.990141        2.165049        2.679306
  O            4.969620        2.322753        2.805278
  H            4.076764        8.108224        3.549298
  H            4.773949        9.578296        3.409091
  O            4.947403        8.596822        3.491191
  H           12.203004       15.062545       19.798894
  H           12.609224       13.489123       19.960647
  O           12.961401       14.424728       19.933578
  H            2.703111        6.580131        2.356051
  H            3.602982        5.218308        2.406120
  O            3.634791        6.217543        2.380909
  H            5.130563        5.641338       10.501812
  H            4.877592        7.245621       10.331170
  O            4.440527        6.346144       10.336839
  H            5.453980       11.120405       13.244412
  H            7.081037       10.982223       13.223731
  O            6.315469       11.624168       13.179792
  H            0.320942        2.270267        9.117872
  H            1.867950        2.298801        9.640165
  O            1.072178        2.860488        9.413506
  H           15.576982       13.619490       16.970770
  H           17.184372       13.877498       16.842063
  O           16.289225       14.318620       16.907189
  H           17.645696       12.781366       10.565814
  H           16.449027       11.783361       10.077137
  O           17.182316       11.913362       10.744599
  H           10.955542       12.289276        9.485405
  H            9.671957       13.018237       10.183876
  O           10.591514       12.657828       10.340840
  H           12.665405        2.263465       15.991786
  H           13.287366        3.772978       16.028802
  O           13.417057        2.828770       16.331736
  H            9.039228       15.119400       16.205932
  H           10.498614       15.852043       16.222110
  O            9.510010       16.001710       16.202641
  H            5.610477        7.566049       17.135043
  H            4.983302        6.152336       16.610729
  O            5.826913        6.630830       16.854618
  H           15.276197        4.773696       10.852104
  H           15.755238        3.882896       12.134224
  O           15.149419        3.909412       11.338989
  H           19.409996        1.774015        3.911978
  H           18.431381        0.925807        4.906811
  O           19.171837        0.859058        4.237940
  H            1.362770       17.349423       18.087119
  H            2.368701       17.517894       19.362484
  O            2.144513       17.857439       18.448938
  H           13.961109        4.454479       19.749715
  H           12.767464        5.354441       19.092358
  O           13.709676        5.367142       19.427312
  H           15.951301       12.545057       19.169939
  H           15.719890       14.161516       19.151366
  O           15.264106       13.271606       19.172328
  H           13.521595       14.824623       11.876937
  H           12.731527       13.446633       12.256111
  O           13.629513       13.852680       12.086213
  H            3.612241       15.919652        2.713224
  H            5.012486       15.694509        1.903619
  O            4.474403       16.345718        2.438887
  H            6.991614        1.934940        7.669823
  H            8.387671        1.714083        8.487797
  O            7.707386        1.275659        7.900332
  H            2.224975        9.484715       16.786236
  H            0.850792        8.610987       16.908940
  O            1.251557        9.521352       17.012578
  H           11.322628       19.976931        4.549404
  H           12.633494       19.074533        4.183146
  O           12.233072       19.989706        4.135829
  H            2.675645        1.723429       13.790007
  H            2.851337        0.856622       12.417195
  O            2.678297        0.802275       13.400669
  H            2.678465       16.254596       14.244857
  H            3.068827       15.541301       15.661072
  O            2.329237       15.960980       15.134770
  H           13.061885       17.669865       10.551288
  H           14.414616       18.575090       10.683671
  O           13.415117       18.599089       10.660317
  H            1.669756        3.458697        5.899121
  H            1.073640        4.975868        5.997475
  O            0.866059        4.032123        5.739843
  H           10.929076       19.732402        1.227974
  H           10.722369       18.671339        2.452005
  O           10.804377       19.639656        2.215883
